Version 4
SHEET 1 1392 680
WIRE 560 160 448 160
WIRE 640 160 624 160
WIRE 896 192 896 176
WIRE 944 192 896 192
WIRE -176 208 -176 176
WIRE 896 208 896 192
WIRE 944 208 944 192
WIRE 640 224 640 160
WIRE 640 224 544 224
WIRE 592 272 592 240
WIRE 544 288 544 224
WIRE 560 288 544 288
WIRE 1184 288 1184 272
WIRE -176 304 -176 288
WIRE -96 304 -176 304
WIRE 640 304 640 224
WIRE 640 304 624 304
WIRE 704 304 640 304
WIRE 896 304 896 288
WIRE 896 304 784 304
WIRE 1024 304 896 304
WIRE 1104 304 1088 304
WIRE 1152 304 1104 304
WIRE -176 320 -176 304
WIRE -96 320 -96 304
WIRE 320 320 224 320
WIRE 352 320 320 320
WIRE 448 320 448 160
WIRE 448 320 432 320
WIRE 464 320 448 320
WIRE 560 320 544 320
WIRE 896 320 896 304
WIRE 1312 320 1216 320
WIRE 944 336 944 288
WIRE 1024 336 944 336
WIRE 1072 336 1024 336
WIRE 1152 336 1072 336
WIRE 1312 336 1312 320
WIRE 320 352 320 320
WIRE 944 352 944 336
WIRE 224 368 224 320
WIRE 544 368 544 320
WIRE 592 368 592 336
WIRE 1024 368 1024 336
WIRE 1104 368 1104 304
WIRE 1184 368 1184 352
WIRE 896 416 896 400
WIRE -176 432 -176 400
WIRE 320 432 320 416
WIRE 1024 432 944 432
WIRE 944 448 944 432
WIRE 1312 448 1312 416
WIRE 544 464 544 432
WIRE 1072 464 1072 336
WIRE 1104 464 1104 448
WIRE 1104 464 1072 464
WIRE 224 480 224 448
FLAG 224 480 0
FLAG 896 416 0
FLAG -176 176 +5
FLAG -176 432 -5
FLAG -96 320 0
FLAG 896 176 +5
FLAG 592 240 +5
FLAG 592 368 -5
FLAG 544 464 0
FLAG 1184 272 +5
FLAG 1184 368 0
FLAG 944 448 0
FLAG 1312 448 0
FLAG 320 432 0
SYMBOL voltage 224 352 R0
SYMATTR InstName V2
SYMATTR Value SINE(2 0.5 50)
SYMATTR Value2 AC 3
SYMBOL res 800 288 R90
WINDOW 0 0 56 VBottom 2
WINDOW 3 32 56 VTop 2
SYMATTR InstName R1
SYMATTR Value 7.68k
SYMBOL res 912 304 R180
WINDOW 0 36 76 Left 2
WINDOW 3 36 40 Left 2
SYMATTR InstName R2
SYMATTR Value 12.7k
SYMBOL res 912 416 R180
WINDOW 0 36 76 Left 2
WINDOW 3 36 40 Left 2
SYMATTR InstName R3
SYMATTR Value 10k
SYMBOL voltage -176 304 R0
SYMATTR InstName V1
SYMATTR Value 5
SYMBOL voltage -176 192 R0
SYMATTR InstName V3
SYMATTR Value 5
SYMBOL Opamps/LT6207 592 304 R0
SYMATTR InstName U1
SYMBOL res 560 304 R90
WINDOW 0 0 56 VBottom 2
WINDOW 3 32 56 VTop 2
SYMATTR InstName R4
SYMATTR Value 1k
SYMBOL res 448 304 R90
WINDOW 0 0 56 VBottom 2
WINDOW 3 32 56 VTop 2
SYMATTR InstName R5
SYMATTR Value 1k
SYMBOL cap 624 144 R90
WINDOW 0 0 32 VBottom 2
WINDOW 3 32 32 VTop 2
SYMATTR InstName C1
SYMATTR Value 10p
SYMBOL cap 560 432 R180
WINDOW 0 24 56 Left 2
WINDOW 3 24 8 Left 2
SYMATTR InstName C2
SYMATTR Value 10p
SYMBOL Comparators/LT1720 1184 256 R0
SYMATTR InstName U2
SYMBOL res 928 192 R0
SYMATTR InstName R6
SYMATTR Value 10k
SYMBOL res 928 336 R0
SYMATTR InstName R7
SYMATTR Value 10k
SYMBOL cap 1088 288 R90
WINDOW 0 0 32 VBottom 2
WINDOW 3 32 32 VTop 2
SYMATTR InstName C3
SYMATTR Value 100n
SYMBOL res 1088 352 R0
SYMATTR InstName R9
SYMATTR Value 10k
SYMBOL res 1296 320 R0
SYMATTR InstName R10
SYMATTR Value 100k
SYMBOL cap 1008 368 R0
SYMATTR InstName C4
SYMATTR Value 0.1µ
SYMBOL cap 304 352 R0
SYMATTR InstName C5
SYMATTR Value 0.5p
TEXT 728 440 Left 2 !.ac dec 1 20000k 100
